/*--------------------------------*- C++ -*----------------------------------*\
| =========                 |                                                 |
| \\      /  F ield         | OpenFOAM: The Open Source CFD Toolbox           |
|  \\    /   O peration     | Version:  3.0.x                                 |
|   \\  /    A nd           | Web:      www.OpenFOAM.org                      |
|    \\/     M anipulation  |                                                 |
\*---------------------------------------------------------------------------*/
FoamFile
{
    version     2.0;
    format      ascii;
    class       extendedFeatureEdgeMesh;
    location    "constant/extendedFeatureEdgeMesh";
    object      flange.extendedFeatureEdgeMesh;
}
// * * * * * * * * * * * * * * * * * * * * * * * * * * * * * * * * * * * * * //

// points

767
(
(0.0065 0.0075 -0.02375)
(0.0065 0.0075 0.00225)
(-0.0065 0.0075 -0.02375)
(-0.0065 0.0075 0.00225)
(0.0065 0.002 -0.0165607)
(0.0065 0.002 -0.00193928)
(-0.0065 0.002 -0.0165607)
(-0.0065 0.002 -0.00193928)
(0.0065 0.002 -0.02375)
(0.0065 0.002 0.00225)
(-0.0065 0.002 -0.02375)
(-0.0065 0.002 0.00225)
(0.0065 0.0075 -0.0163808)
(0.00104896 -6.98e-16 -0.0114866)
(0.0065 0.0075 -0.00211917)
(-0.0065 0.0075 -0.0163808)
(-0.00104896 -6.98e-16 -0.0114866)
(-0.0065 0.0075 -0.00211917)
(0.00249896 -6.98e-16 -0.00925)
(0.0022979 -6.98e-16 -0.010222)
(0.0117593 0.002 -0.00925)
(0.0119634 0.002 -0.0108016)
(0.0147592 0.002 -0.014446)
(0.0162069 0.002 -0.0150457)
(0.0177593 0.002 -0.01525)
(0.013513 0.002 -0.013489)
(0.012563 0.002 -0.0122497)
(0.0022979 -6.98e-16 -0.008278)
(0.0235547 0.002 -0.0108036)
(0.0237593 0.002 -0.00925)
(0.0229553 0.002 -0.0122503)
(0.022002 0.002 -0.0134926)
(0.0207594 0.002 -0.014446)
(0.0193148 0.002 -0.0150449)
(0.0235547 0.002 -0.0076964)
(0.0229553 0.002 -0.0062497)
(0.022002 0.002 -0.00500735)
(0.0207594 0.002 -0.00405388)
(0.0193148 0.002 -0.00345514)
(0.0177593 0.002 -0.00325)
(0.0119634 0.002 -0.0076985)
(0.0162069 0.002 -0.0034543)
(0.0147592 0.002 -0.0040539)
(0.013513 0.002 -0.00501106)
(0.012563 0.002 -0.0062503)
(-0.0022979 -6.98e-16 -0.010222)
(-0.00249896 -6.98e-16 -0.00925)
(-0.0119634 0.002 -0.0108016)
(-0.0117593 0.002 -0.00925)
(-0.0162069 0.002 -0.0150457)
(-0.0147592 0.002 -0.014446)
(-0.0177593 0.002 -0.01525)
(-0.013513 0.002 -0.013489)
(-0.012563 0.002 -0.0122497)
(-0.0022979 -6.98e-16 -0.008278)
(-0.0237593 0.002 -0.00925)
(-0.0235547 0.002 -0.0108036)
(-0.0229553 0.002 -0.0122503)
(-0.022002 0.002 -0.0134926)
(-0.0207594 0.002 -0.014446)
(-0.0193148 0.002 -0.0150449)
(-0.0235547 0.002 -0.0076964)
(-0.0229553 0.002 -0.0062497)
(-0.022002 0.002 -0.00500735)
(-0.0207594 0.002 -0.00405388)
(-0.0193148 0.002 -0.00345514)
(-0.0177593 0.002 -0.00325)
(-0.0119634 0.002 -0.0076985)
(-0.0147592 0.002 -0.0040539)
(-0.0162069 0.002 -0.0034543)
(-0.013513 0.002 -0.00501106)
(-0.012563 0.002 -0.0062503)
(0.00148663 -0.0075 -0.02375)
(4.8963e-05 -0.0075 -0.02375)
(0.0029119 -0.0075 -0.02375)
(0.0042271 -0.0075 -0.02375)
(0.0054374 -0.0075 -0.02375)
(0.0065 -0.0075 -0.02375)
(4.8963e-05 0.0225 -0.01625)
(0.00104896 0.0225 -0.0161782)
(0.0021601 0.0225 -0.015924)
(0.0032438 0.0225 -0.0154784)
(0.0043334 0.0225 -0.0147856)
(0.0054108 0.0225 -0.01375)
(0.0061985 0.0225 -0.0125942)
(0.006682 0.0225 -0.0114866)
(0.0069557 0.0225 -0.010389)
(0.007049 0.0225 -0.00925)
(0.0017277 5.66e-08 -0.0110345)
(0.00141894 5.66e-08 -0.0112812)
(4.8963e-05 -0.0075 0.00225)
(0.00149694 -0.0075 0.00225)
(0.0029119 -0.0075 0.00225)
(0.0042271 -0.0075 0.00225)
(0.0054374 -0.0075 0.00225)
(0.0065 -0.0075 0.00225)
(0.00104896 0.0225 -0.00232179)
(4.8963e-05 0.0225 -0.00225)
(0.0021601 0.0225 -0.00257594)
(0.0032438 0.0225 -0.0030216)
(0.0043334 0.0225 -0.00371436)
(0.0054108 0.0225 -0.00475)
(0.006682 0.0225 -0.00701337)
(0.0061985 0.0225 -0.0059058)
(0.0069557 0.0225 -0.0081109)
(0.0017277 5.66e-08 -0.0074655)
(0.0009519 2.24e-11 -0.0069725)
(4.8963e-05 6.26e-10 -0.0068)
(-0.00148663 -0.0075 -0.02375)
(-0.0029119 -0.0075 -0.02375)
(-0.0042271 -0.0075 -0.02375)
(-0.0054374 -0.0075 -0.02375)
(-0.0065 -0.0075 -0.02375)
(-0.00104896 0.0225 -0.0161782)
(-0.0021601 0.0225 -0.015924)
(-0.0032438 0.0225 -0.0154784)
(-0.0043334 0.0225 -0.0147856)
(-0.0054108 0.0225 -0.01375)
(-0.006682 0.0225 -0.0114866)
(-0.0061985 0.0225 -0.0125942)
(-0.0069557 0.0225 -0.010389)
(-0.007049 0.0225 -0.00925)
(-0.0017277 5.66e-08 -0.0110345)
(-0.00141894 5.66e-08 -0.0112812)
(-0.00149694 -0.0075 0.00225)
(-0.0029119 -0.0075 0.00225)
(-0.0042271 -0.0075 0.00225)
(-0.0054374 -0.0075 0.00225)
(-0.0065 -0.0075 0.00225)
(-0.00104896 0.0225 -0.00232179)
(-0.0021601 0.0225 -0.00257594)
(-0.0032438 0.0225 -0.0030216)
(-0.0043334 0.0225 -0.00371436)
(-0.0054108 0.0225 -0.00475)
(-0.0061985 0.0225 -0.0059058)
(-0.006682 0.0225 -0.00701337)
(-0.0069557 0.0225 -0.0081109)
(-0.0017277 5.66e-08 -0.0074655)
(-0.0009519 2.24e-11 -0.0069725)
(4.8963e-05 0.0065 -0.01625)
(0.00104896 0.0065 -0.0161782)
(0.00104896 0.0085771 -0.0161782)
(4.8963e-05 0.0085771 -0.01625)
(0.0021601 0.0065 -0.015924)
(0.0021601 0.0085771 -0.015924)
(0.0032438 0.0065 -0.0154784)
(0.0032438 0.0085771 -0.0154784)
(0.0043334 0.0065 -0.0147856)
(0.0043334 0.0085771 -0.0147856)
(0.0054108 0.0065 -0.01375)
(0.0054108 0.0085771 -0.01375)
(0.0061985 0.0065 -0.0125942)
(0.006682 0.0065 -0.0114866)
(0.006682 0.0085771 -0.0114866)
(0.0061985 0.0085771 -0.0125942)
(0.0069557 0.0065 -0.010389)
(0.0069557 0.0085771 -0.010389)
(0.007049 0.0065 -0.00925)
(0.007049 0.0085771 -0.00925)
(0.00104896 0.0065 -0.0023218)
(4.8963e-05 0.0065 -0.00225)
(4.8963e-05 0.0085771 -0.00225)
(0.00104896 0.0085771 -0.0023218)
(0.0021601 0.0065 -0.00257594)
(0.0021601 0.0085771 -0.00257594)
(0.0032438 0.0065 -0.0030216)
(0.0032438 0.0085771 -0.0030216)
(0.0043334 0.0065 -0.00371436)
(0.0043334 0.0085771 -0.00371436)
(0.0054108 0.0065 -0.00475)
(0.0054108 0.0085771 -0.00475)
(0.006682 0.0065 -0.00701337)
(0.0061985 0.0065 -0.00590579)
(0.0061985 0.0085771 -0.00590579)
(0.006682 0.0085771 -0.00701337)
(0.0069557 0.0065 -0.0081109)
(0.0069557 0.0085771 -0.0081109)
(-0.00104896 0.0065 -0.0161782)
(-0.00104896 0.0085771 -0.0161782)
(-0.0021601 0.0065 -0.015924)
(-0.0021601 0.0085771 -0.015924)
(-0.0032438 0.0065 -0.0154784)
(-0.0032438 0.0085771 -0.0154784)
(-0.0043334 0.0065 -0.0147856)
(-0.0043334 0.0085771 -0.0147856)
(-0.0054108 0.0065 -0.01375)
(-0.0054108 0.0085771 -0.01375)
(-0.006682 0.0065 -0.0114866)
(-0.0061985 0.0065 -0.0125942)
(-0.0061985 0.0085771 -0.0125942)
(-0.006682 0.0085771 -0.0114866)
(-0.0069557 0.0065 -0.010389)
(-0.0069557 0.0085771 -0.010389)
(-0.007049 0.0065 -0.00925)
(-0.007049 0.0085771 -0.00925)
(-0.00104896 0.0065 -0.0023218)
(-0.00104896 0.0085771 -0.0023218)
(-0.0021601 0.0065 -0.00257594)
(-0.0021601 0.0085771 -0.00257594)
(-0.0032438 0.0065 -0.0030216)
(-0.0032438 0.0085771 -0.0030216)
(-0.0043334 0.0065 -0.00371436)
(-0.0043334 0.0085771 -0.00371436)
(-0.0054108 0.0065 -0.00475)
(-0.0054108 0.0085771 -0.00475)
(-0.0061985 0.0065 -0.00590579)
(-0.006682 0.0065 -0.00701337)
(-0.006682 0.0085771 -0.00701337)
(-0.0061985 0.0085771 -0.00590579)
(-0.0069557 0.0065 -0.0081109)
(-0.0069557 0.0085771 -0.0081109)
(-0.0120291 -0.0075 0.00225)
(-0.0088096 -0.0075 0.00225)
(0.025665 -0.0075 -0.0068919)
(0.0260093 -0.0075 -0.00925)
(0.024661 -0.0075 -0.0047304)
(0.0230815 -0.0075 -0.0029463)
(0.0210577 -0.0075 -0.00168803)
(0.0194085 -0.0075 -0.0009687)
(0.0177593 -0.0075 -0.000249369)
(0.0139774 -0.0075 0.00140021)
(0.0158684 -0.0075 0.00057542)
(-0.0139919 -0.0075 -0.020182)
(-0.0159418 -0.0075 -0.0192534)
(-0.025665 -0.0075 -0.0116081)
(-0.0260093 -0.0075 -0.00925)
(-0.024661 -0.0075 -0.0137696)
(-0.0230815 -0.0075 -0.0155537)
(-0.0210577 -0.0075 -0.016812)
(-0.01945 -0.0075 -0.0175827)
(-0.0177593 -0.0075 -0.0183878)
(0.0088096 -0.0075 0.00225)
(0.0120291 -0.0075 0.00225)
(0.00096135 0.00040932 -0.0115238)
(0.00074085 0.0007218 -0.0116002)
(0.000427704 0.00092555 -0.0116705)
(4.8963e-05 0.00100006 -0.0116999)
(4.8963e-05 -0.0075 -0.01825)
(0.00139314 -0.0075 -0.018149)
(0.00270178 -0.0075 -0.01785)
(0.0039601 -0.0075 -0.0173557)
(0.0050592 -0.0075 -0.0167264)
(0.006294 -0.0075 -0.0157307)
(0.00746649 -0.0075 -0.014347)
(0.0083333 -0.0075 -0.012767)
(0.0088811 -0.0075 -0.01098)
(0.009049 -0.0075 -0.00925)
(0.0177593 -0.0075 -0.0183878)
(0.0159418 -0.0075 -0.0192534)
(0.0092624 -0.0075 -0.0224344)
(0.0117868 -0.0075 -0.021232)
(0.0139919 -0.0075 -0.020182)
(0.00139314 -0.0075 -0.000350945)
(4.8963e-05 -0.0075 -0.00025)
(0.00270178 -0.0075 -0.00064985)
(0.0039601 -0.0075 -0.00114427)
(0.0050592 -0.0075 -0.00177355)
(0.006294 -0.0075 -0.00276926)
(0.0083333 -0.0075 -0.005733)
(0.00746649 -0.0075 -0.0041529)
(0.0088811 -0.0075 -0.00752)
(0.0210093 0.002 -0.00925)
(0.0208985 0.002 -0.0100915)
(0.0205738 0.002 -0.0108751)
(0.0200574 0.002 -0.011548)
(0.0193844 0.002 -0.0120646)
(0.0186019 0.002 -0.0123889)
(0.0177593 0.002 -0.0125)
(0.0169184 0.002 -0.0123893)
(0.0161343 0.002 -0.0120645)
(0.0154592 0.002 -0.011546)
(0.0149446 0.002 -0.0108748)
(0.01462 0.002 -0.0100904)
(0.0145093 0.002 -0.00925)
(0.0208985 -0.0075 -0.0100915)
(0.0210093 -0.0075 -0.00925)
(0.0205738 -0.0075 -0.0108751)
(0.0200574 -0.0075 -0.011548)
(0.0193844 -0.0075 -0.0120646)
(0.0186019 -0.0075 -0.0123889)
(0.0177593 -0.0075 -0.0125)
(0.0169184 -0.0075 -0.0123893)
(0.0161343 -0.0075 -0.0120645)
(0.0154592 -0.0075 -0.011546)
(0.0149446 -0.0075 -0.0108748)
(0.01462 -0.0075 -0.0100904)
(0.0145093 -0.0075 -0.00925)
(0.0208985 0.002 -0.0084085)
(0.0205738 0.002 -0.0076249)
(0.0200574 0.002 -0.0069519)
(0.0193844 0.002 -0.0064354)
(0.0186019 0.002 -0.0061111)
(0.0177593 0.002 -0.006)
(0.0169184 0.002 -0.00611067)
(0.0161343 0.002 -0.0064355)
(0.0154592 0.002 -0.0069539)
(0.0149446 0.002 -0.00762518)
(0.01462 0.002 -0.0084096)
(0.0208985 -0.0075 -0.0084085)
(0.0205738 -0.0075 -0.0076249)
(0.0200574 -0.0075 -0.0069519)
(0.0193844 -0.0075 -0.0064354)
(0.0186019 -0.0075 -0.0061111)
(0.0177593 -0.0075 -0.006)
(0.0169184 -0.0075 -0.00611067)
(0.0161343 -0.0075 -0.0064355)
(0.0154592 -0.0075 -0.0069539)
(0.0149446 -0.0075 -0.00762518)
(0.01462 -0.0075 -0.0084096)
(-0.00096135 0.00040932 -0.0115238)
(-0.00074085 0.0007218 -0.0116002)
(-0.000427704 0.00092555 -0.0116705)
(-0.00139314 -0.0075 -0.018149)
(-0.00270178 -0.0075 -0.01785)
(-0.0039601 -0.0075 -0.0173557)
(-0.0050592 -0.0075 -0.0167264)
(-0.006294 -0.0075 -0.0157307)
(-0.0083333 -0.0075 -0.012767)
(-0.00746649 -0.0075 -0.014347)
(-0.0088811 -0.0075 -0.01098)
(-0.009049 -0.0075 -0.00925)
(-0.0092624 -0.0075 -0.0224344)
(-0.0117868 -0.0075 -0.021232)
(-0.00139314 -0.0075 -0.000350945)
(-0.00270178 -0.0075 -0.00064985)
(-0.0039601 -0.0075 -0.00114427)
(-0.0050592 -0.0075 -0.00177355)
(-0.006294 -0.0075 -0.00276926)
(-0.00746649 -0.0075 -0.0041529)
(-0.0083333 -0.0075 -0.005733)
(-0.0088811 -0.0075 -0.00752)
(-0.0208985 0.002 -0.0100915)
(-0.0210093 0.002 -0.00925)
(-0.0205738 0.002 -0.0108751)
(-0.0200574 0.002 -0.011548)
(-0.0193844 0.002 -0.0120646)
(-0.0186019 0.002 -0.0123889)
(-0.0177593 0.002 -0.0125)
(-0.0169184 0.002 -0.0123893)
(-0.0161343 0.002 -0.0120645)
(-0.0154592 0.002 -0.011546)
(-0.0149446 0.002 -0.0108748)
(-0.01462 0.002 -0.0100904)
(-0.0145093 0.002 -0.00925)
(-0.0210093 -0.0075 -0.00925)
(-0.0208985 -0.0075 -0.0100915)
(-0.0205738 -0.0075 -0.0108751)
(-0.0200574 -0.0075 -0.011548)
(-0.0193844 -0.0075 -0.0120646)
(-0.0186019 -0.0075 -0.0123889)
(-0.0177593 -0.0075 -0.0125)
(-0.0169184 -0.0075 -0.0123893)
(-0.0161343 -0.0075 -0.0120645)
(-0.0154592 -0.0075 -0.011546)
(-0.0149446 -0.0075 -0.0108748)
(-0.01462 -0.0075 -0.0100904)
(-0.0145093 -0.0075 -0.00925)
(-0.0208985 0.002 -0.0084085)
(-0.0205738 0.002 -0.0076249)
(-0.0200574 0.002 -0.0069519)
(-0.0193844 0.002 -0.0064354)
(-0.0186019 0.002 -0.0061111)
(-0.0177593 0.002 -0.006)
(-0.0169184 0.002 -0.00611067)
(-0.0161343 0.002 -0.0064355)
(-0.0154592 0.002 -0.0069539)
(-0.0149446 0.002 -0.00762518)
(-0.01462 0.002 -0.0084096)
(-0.0208985 -0.0075 -0.0084085)
(-0.0205738 -0.0075 -0.0076249)
(-0.0200574 -0.0075 -0.0069519)
(-0.0193844 -0.0075 -0.0064354)
(-0.0186019 -0.0075 -0.0061111)
(-0.0177593 -0.0075 -0.006)
(-0.0169184 -0.0075 -0.00611067)
(-0.0161343 -0.0075 -0.0064355)
(-0.0154592 -0.0075 -0.0069539)
(-0.0149446 -0.0075 -0.00762518)
(-0.01462 -0.0075 -0.0084096)
(-0.0177593 -0.0075 -0.000249369)
(-0.0158684 -0.0075 0.00057542)
(-0.0139774 -0.0075 0.00140021)
(0.025665 -0.0075 -0.0116081)
(0.024661 -0.0075 -0.0137696)
(0.0230815 -0.0075 -0.0155537)
(0.0210577 -0.0075 -0.016812)
(0.01945 -0.0075 -0.0175827)
(-0.025665 -0.0075 -0.0068919)
(-0.024661 -0.0075 -0.0047304)
(-0.0230815 -0.0075 -0.0029463)
(-0.0210577 -0.0075 -0.00168803)
(-0.0194085 -0.0075 -0.0009687)
(0.00104896 -3.91e-18 -0.01375)
(0.00097284 0.00038268 -0.01375)
(0.00075607 0.0007071 -0.01375)
(0.000431646 0.00092388 -0.01375)
(4.8963e-05 0.001 -0.01375)
(0.00097284 -0.00038268 -0.01375)
(0.00075607 -0.0007071 -0.01375)
(0.000431646 -0.00092388 -0.01375)
(4.8963e-05 -0.001 -0.01375)
(0.0177593 0.002 -0.0183878)
(0.0159418 0.002 -0.0192534)
(0.0092624 0.002 -0.0224344)
(0.0117868 0.002 -0.021232)
(0.0139919 0.002 -0.020182)
(0.0260093 0.002 -0.00925)
(0.025665 0.002 -0.0116081)
(0.024661 0.002 -0.0137696)
(0.0230815 0.002 -0.0155537)
(0.0210577 0.002 -0.016812)
(0.01945 0.002 -0.0175827)
(0.025665 0.002 -0.0068919)
(0.024661 0.002 -0.0047304)
(0.0230815 0.002 -0.0029463)
(0.0210577 0.002 -0.00168803)
(0.0194085 0.002 -0.0009687)
(0.0177593 0.002 -0.000249369)
(0.0158684 0.002 0.00057542)
(0.0088096 0.002 0.00225)
(0.0120291 0.002 0.00225)
(0.0139774 0.002 0.00140021)
(-0.00097284 0.00038268 -0.01375)
(-0.00104896 -3.91e-18 -0.01375)
(-0.00075607 0.0007071 -0.01375)
(-0.000431646 0.00092388 -0.01375)
(-0.00097284 -0.00038268 -0.01375)
(-0.00075607 -0.0007071 -0.01375)
(-0.000431646 -0.00092388 -0.01375)
(-0.0159418 0.002 -0.0192534)
(-0.0177593 0.002 -0.0183878)
(-0.0092624 0.002 -0.0224344)
(-0.0117868 0.002 -0.021232)
(-0.0139919 0.002 -0.020182)
(-0.025665 0.002 -0.0116081)
(-0.0260093 0.002 -0.00925)
(-0.024661 0.002 -0.0137696)
(-0.0230815 0.002 -0.0155537)
(-0.0210577 0.002 -0.016812)
(-0.01945 0.002 -0.0175827)
(-0.025665 0.002 -0.0068919)
(-0.024661 0.002 -0.0047304)
(-0.0230815 0.002 -0.0029463)
(-0.0210577 0.002 -0.00168803)
(-0.0194085 0.002 -0.0009687)
(-0.0177593 0.002 -0.000249369)
(-0.0158684 0.002 0.00057542)
(-0.0088096 0.002 0.00225)
(-0.0139774 0.002 0.00140021)
(-0.0120291 0.002 0.00225)
(0.00312345 -0.0275 -0.01375)
(0.00391928 -0.0275 -0.013087)
(0.00429036 -0.0275 -0.0126724)
(0.00391928 -0.0275 -0.0054129)
(0.00312345 -0.0275 -0.00475)
(0.00429036 -0.0275 -0.00582756)
(-0.00391928 -0.0275 -0.013087)
(-0.00312345 -0.0275 -0.01375)
(-0.00429036 -0.0275 -0.0126724)
(-0.00312345 -0.0275 -0.00475)
(-0.00391928 -0.0275 -0.0054129)
(-0.00429036 -0.0275 -0.00582756)
(0.00104896 0.00438748 -0.02375)
(4.8963e-05 0.0045 -0.02375)
(4.8963e-05 0.0075 -0.02375)
(0.00148663 0.0075 -0.02375)
(0.00216496 0.00397147 -0.02375)
(0.0029119 0.0075 -0.02375)
(0.00323885 0.00317405 -0.02375)
(0.0042271 0.0075 -0.02375)
(0.004549 -6.84e-16 -0.02375)
(0.0043992 0.00115128 -0.02375)
(0.0039599 0.00222589 -0.02375)
(0.0054374 0.0075 -0.02375)
(0.0065 0.003375 -0.02375)
(0.0065 0.00475 -0.02375)
(0.0065 0.006125 -0.02375)
(4.8963e-05 -0.0045 -0.02375)
(0.00104896 -0.00438748 -0.02375)
(0.00216496 -0.00397147 -0.02375)
(0.00323885 -0.00317405 -0.02375)
(0.0043992 -0.00115128 -0.02375)
(0.0039599 -0.00222589 -0.02375)
(4.8963e-05 -0.0175 -0.01825)
(0.00139314 -0.0175 -0.018149)
(0.00270178 -0.0175 -0.01785)
(0.0039601 -0.0175 -0.0173557)
(0.0050592 -0.0175 -0.0167264)
(0.006294 -0.0175 -0.0157307)
(0.00746649 -0.0175 -0.014347)
(0.0083333 -0.0175 -0.012767)
(0.0088811 -0.0175 -0.01098)
(0.009049 -0.0175 -0.00925)
(0.00104896 -0.0275 -0.0114868)
(4.8962e-05 -0.0275 -0.0117)
(0.00178137 -0.0275 -0.0109825)
(0.00231247 -0.0275 -0.0101877)
(0.00249896 -0.0275 -0.00925)
(0.0047034 -0.0275 -0.0120852)
(0.00501887 -0.0275 -0.0114866)
(0.0053672 -0.0275 -0.010441)
(0.005499 -0.0275 -0.00925)
(4.8963e-05 -0.0275 -0.0147)
(0.00109717 -0.0275 -0.0145982)
(0.0020612 -0.0275 -0.014315)
(0.0015038 0.0225 -0.0183849)
(4.8963e-05 0.0225 -0.0185)
(0.00284678 0.0225 -0.0180667)
(0.00408266 0.0225 -0.017574)
(0.0052903 0.0225 -0.0168717)
(0.00635 0.0225 -0.016022)
(0.008537 0.0225 -0.0129264)
(0.0075997 0.0225 -0.014593)
(0.009116 0.0225 -0.011081)
(0.009299 0.0225 -0.00925)
(0.00096135 -0.00040932 -0.0115238)
(0.00074085 -0.0007218 -0.0116002)
(0.000427704 -0.00092555 -0.0116705)
(4.8963e-05 -0.00100006 -0.0116999)
(0.00149694 0.0075 0.00225)
(4.8963e-05 0.0075 0.00225)
(0.0029119 0.0075 0.00225)
(0.0042271 0.0075 0.00225)
(0.0054374 0.0075 0.00225)
(0.0065 0.003375 0.00225)
(0.0065 0.00475 0.00225)
(0.0065 0.006125 0.00225)
(0.00139314 -0.0175 -0.000350945)
(4.8963e-05 -0.0175 -0.00025)
(0.00270178 -0.0175 -0.00064985)
(0.0039601 -0.0175 -0.00114427)
(0.0050592 -0.0175 -0.00177355)
(0.006294 -0.0175 -0.00276926)
(0.0083333 -0.0175 -0.005733)
(0.00746649 -0.0175 -0.0041529)
(0.0088811 -0.0175 -0.00752)
(4.8962e-05 -0.0275 -0.0068)
(0.00104896 -0.0275 -0.0070132)
(0.00178137 -0.0275 -0.0075175)
(0.00231247 -0.0275 -0.00831229)
(0.00501887 -0.0275 -0.00701337)
(0.0047034 -0.0275 -0.0064148)
(0.0053672 -0.0275 -0.008059)
(0.00109717 -0.0275 -0.00390175)
(4.8963e-05 -0.0275 -0.0038)
(0.0020612 -0.0275 -0.00418508)
(4.8963e-05 0.0225 0)
(0.0015038 0.0225 -0.000115125)
(0.00284678 0.0225 -0.00043327)
(0.00408266 0.0225 -0.00092583)
(0.0052903 0.0225 -0.0016283)
(0.00635 0.0225 -0.002478)
(0.0075997 0.0225 -0.0039069)
(0.008537 0.0225 -0.0055736)
(0.009116 0.0225 -0.007419)
(-0.00104896 0.00438748 -0.02375)
(-0.00148663 0.0075 -0.02375)
(-0.00216496 0.00397147 -0.02375)
(-0.0029119 0.0075 -0.02375)
(-0.00323885 0.00317405 -0.02375)
(-0.0042271 0.0075 -0.02375)
(-0.0043992 0.00115128 -0.02375)
(-0.004549 -6.84e-16 -0.02375)
(-0.0039599 0.00222589 -0.02375)
(-0.0054374 0.0075 -0.02375)
(-0.0065 0.003375 -0.02375)
(-0.0065 0.00475 -0.02375)
(-0.0065 0.006125 -0.02375)
(-0.00104896 -0.00438748 -0.02375)
(-0.00216496 -0.00397147 -0.02375)
(-0.00323885 -0.00317405 -0.02375)
(-0.0043992 -0.00115128 -0.02375)
(-0.0039599 -0.00222589 -0.02375)
(-0.00139314 -0.0175 -0.018149)
(-0.00270178 -0.0175 -0.01785)
(-0.0039601 -0.0175 -0.0173557)
(-0.0050592 -0.0175 -0.0167264)
(-0.006294 -0.0175 -0.0157307)
(-0.0083333 -0.0175 -0.012767)
(-0.00746649 -0.0175 -0.014347)
(-0.0088811 -0.0175 -0.01098)
(-0.009049 -0.0175 -0.00925)
(-0.00104896 -0.0275 -0.0114868)
(-0.00178137 -0.0275 -0.0109825)
(-0.00231247 -0.0275 -0.0101877)
(-0.00249896 -0.0275 -0.00925)
(-0.00501887 -0.0275 -0.0114866)
(-0.0047034 -0.0275 -0.0120852)
(-0.0053672 -0.0275 -0.010441)
(-0.005499 -0.0275 -0.00925)
(-0.00109717 -0.0275 -0.0145982)
(-0.0020612 -0.0275 -0.014315)
(-0.0015038 0.0225 -0.0183849)
(-0.00284678 0.0225 -0.0180667)
(-0.00408266 0.0225 -0.017574)
(-0.0052903 0.0225 -0.0168717)
(-0.00635 0.0225 -0.016022)
(-0.0075997 0.0225 -0.014593)
(-0.008537 0.0225 -0.0129264)
(-0.009116 0.0225 -0.011081)
(-0.009299 0.0225 -0.00925)
(-0.00096135 -0.00040932 -0.0115238)
(-0.00074085 -0.0007218 -0.0116002)
(-0.000427704 -0.00092555 -0.0116705)
(-0.00149694 0.0075 0.00225)
(-0.0029119 0.0075 0.00225)
(-0.0042271 0.0075 0.00225)
(-0.0054374 0.0075 0.00225)
(-0.0065 0.003375 0.00225)
(-0.0065 0.00475 0.00225)
(-0.0065 0.006125 0.00225)
(-0.00139314 -0.0175 -0.000350945)
(-0.00270178 -0.0175 -0.00064985)
(-0.0039601 -0.0175 -0.00114427)
(-0.0050592 -0.0175 -0.00177355)
(-0.006294 -0.0175 -0.00276926)
(-0.00746649 -0.0175 -0.0041529)
(-0.0083333 -0.0175 -0.005733)
(-0.0088811 -0.0175 -0.00752)
(-0.00104896 -0.0275 -0.0070132)
(-0.00178137 -0.0275 -0.0075175)
(-0.00231247 -0.0275 -0.00831229)
(-0.0047034 -0.0275 -0.0064148)
(-0.00501887 -0.0275 -0.00701337)
(-0.0053672 -0.0275 -0.008059)
(-0.00109717 -0.0275 -0.00390175)
(-0.0020612 -0.0275 -0.00418508)
(-0.0015038 0.0225 -0.000115125)
(-0.00284678 0.0225 -0.00043327)
(-0.00408266 0.0225 -0.00092583)
(-0.0052903 0.0225 -0.0016283)
(-0.00635 0.0225 -0.002478)
(-0.008537 0.0225 -0.0055736)
(-0.0075997 0.0225 -0.0039069)
(-0.009116 0.0225 -0.007419)
(0.0065 0.0075 0.000312658)
(-0.0065 0.0075 -0.0188127)
(-0.0065 0.0075 -0.0212445)
(0.0065 0.0075 -0.0188127)
(0.0065 0.0075 -0.0212445)
(-0.0065 0.0075 0.000312658)
(0.00231247 0.0065 -0.0101876)
(0.00178137 0.0065 -0.0109824)
(0.00249896 0.0065 -0.00925)
(-0.00231247 0.0065 -0.0083124)
(-0.00178137 0.0065 -0.00751759)
(-0.00249896 0.0065 -0.00925)
(0.00104896 0.0065 -0.0114866)
(4.8963e-05 0.0065 -0.0116999)
(4.8963e-05 0.0065 -0.0068001)
(0.00104896 0.0065 -0.00701337)
(0.00178137 0.0065 -0.00751759)
(-0.00104896 0.0065 -0.0114866)
(-0.00178137 0.0065 -0.0109824)
(-0.00104896 0.0065 -0.00701337)
(0.00231247 0.0065 -0.0083124)
(-0.00231247 0.0065 -0.0101876)
(0.002302 0.00389537 -0.01375)
(0.003234 0.00317894 -0.01375)
(0.003234 -0.00317894 -0.01375)
(0.002302 -0.00389537 -0.01375)
(-0.003234 0.00317894 -0.01375)
(-0.002302 0.00389537 -0.01375)
(-0.002302 -0.00389537 -0.01375)
(-0.003234 -0.00317894 -0.01375)
(0.0096058 0.002 -0.011181)
(0.009799 0.002 -0.00925)
(0.0079468 0.002 -0.0149673)
(0.0065 0.002 -0.018933)
(0.0065 0.002 -0.0213056)
(0.0089605 0.002 -0.0132056)
(0.0096058 0.002 -0.007319)
(0.0079468 0.002 -0.0035327)
(0.0065 0.002 0.00043318)
(0.0089605 0.002 -0.00529437)
(-0.009799 0.002 -0.00925)
(-0.0096058 0.002 -0.011181)
(-0.0079468 0.002 -0.0149673)
(-0.0065 0.002 -0.018933)
(-0.0065 0.002 -0.0213056)
(-0.0089605 0.002 -0.0132056)
(-0.0096058 0.002 -0.007319)
(-0.0079468 0.002 -0.0035327)
(-0.0065 0.002 0.00043318)
(-0.0089605 0.002 -0.00529437)
(0.0039486 0.00224557 -0.01375)
(0.0039486 -0.00224557 -0.01375)
(-0.0039486 0.00224557 -0.01375)
(-0.0039486 -0.00224557 -0.01375)
(0.0065 0.003375 -0.0165157)
(0.0065 0.00475 -0.0164708)
(0.0065 0.006125 -0.0164258)
(0.00109717 -0.0175 -0.0145982)
(4.8963e-05 -0.0175 -0.0147)
(0.0020612 -0.0175 -0.014315)
(0.00312345 -0.0175 -0.01375)
(0.00391928 -0.0175 -0.013087)
(0.00429036 -0.0175 -0.0126724)
(0.00501887 -0.0175 -0.0114866)
(0.0047034 -0.0175 -0.0120852)
(0.0053672 -0.0175 -0.010441)
(0.005499 -0.0175 -0.00925)
(0.0065 0.003375 -0.00198425)
(0.0065 0.00475 -0.00202923)
(0.0065 0.006125 -0.0020742)
(4.8963e-05 -0.0175 -0.0038)
(0.00109717 -0.0175 -0.00390175)
(0.0020612 -0.0175 -0.00418508)
(0.00312345 -0.0175 -0.00475)
(0.00391928 -0.0175 -0.0054129)
(0.00429036 -0.0175 -0.00582756)
(0.0047034 -0.0175 -0.0064148)
(0.00501887 -0.0175 -0.00701337)
(0.0053672 -0.0175 -0.008059)
(-0.0065 0.003375 -0.0165157)
(-0.0065 0.00475 -0.0164708)
(-0.0065 0.006125 -0.0164258)
(-0.00109717 -0.0175 -0.0145982)
(-0.0020612 -0.0175 -0.014315)
(-0.00312345 -0.0175 -0.01375)
(-0.00391928 -0.0175 -0.013087)
(-0.00429036 -0.0175 -0.0126724)
(-0.0047034 -0.0175 -0.0120852)
(-0.00501887 -0.0175 -0.0114866)
(-0.0053672 -0.0175 -0.010441)
(-0.005499 -0.0175 -0.00925)
(-0.0065 0.003375 -0.00198425)
(-0.0065 0.00475 -0.00202923)
(-0.0065 0.006125 -0.0020742)
(-0.00109717 -0.0175 -0.00390175)
(-0.0020612 -0.0175 -0.00418508)
(-0.00312345 -0.0175 -0.00475)
(-0.00391928 -0.0175 -0.0054129)
(-0.00429036 -0.0175 -0.00582756)
(-0.00501887 -0.0175 -0.00701337)
(-0.0047034 -0.0175 -0.0064148)
(-0.0053672 -0.0175 -0.008059)
(0.0044074 0.00111986 -0.01375)
(0.004549 -3.91e-18 -0.01375)
(4.8963e-05 0.0044999 -0.01375)
(0.00118068 0.00435537 -0.01375)
(0.0044074 -0.00111986 -0.01375)
(0.00118068 -0.00435537 -0.01375)
(4.8963e-05 -0.0044999 -0.01375)
(-0.0044074 0.00111986 -0.01375)
(-0.004549 -3.91e-18 -0.01375)
(-0.00118068 0.00435537 -0.01375)
(-0.0044074 -0.00111986 -0.01375)
(-0.00118068 -0.00435537 -0.01375)
(4.8963e-05 0.0075 -0.0188659)
(0.00149694 0.0075 -0.0187562)
(0.0029119 0.0075 -0.0184298)
(0.0042271 0.0075 -0.0179107)
(0.0054374 0.0075 -0.0172143)
(0.00149694 0.0075 0.000256209)
(4.8963e-05 0.0075 0.00036585)
(0.0029119 0.0075 -7.0227e-05)
(0.0042271 0.0075 -0.0005893)
(0.0054374 0.0075 -0.00128575)
(-0.00149694 0.0075 -0.0187562)
(-0.0029119 0.0075 -0.0184298)
(-0.0042271 0.0075 -0.0179107)
(-0.0054374 0.0075 -0.0172143)
(-0.00149694 0.0075 0.000256209)
(-0.0029119 0.0075 -7.0227e-05)
(-0.0042271 0.0075 -0.0005893)
(-0.0054374 0.0075 -0.00128575)
)

// edges

776
(
(72 73)
(74 72)
(75 74)
(76 75)
(77 76)
(78 79)
(79 80)
(80 81)
(81 82)
(82 83)
(84 85)
(83 84)
(85 86)
(86 87)
(19 88)
(90 91)
(91 92)
(92 93)
(93 94)
(94 95)
(96 97)
(98 96)
(99 98)
(100 99)
(101 100)
(102 103)
(103 101)
(104 102)
(87 104)
(105 27)
(106 105)
(73 108)
(108 109)
(109 110)
(110 111)
(111 112)
(113 78)
(114 113)
(115 114)
(116 115)
(117 116)
(118 119)
(119 117)
(120 118)
(121 120)
(122 45)
(124 90)
(125 124)
(126 125)
(127 126)
(128 127)
(97 129)
(129 130)
(130 131)
(131 132)
(132 133)
(134 135)
(133 134)
(135 136)
(136 121)
(54 137)
(137 138)
(211 212)
(213 214)
(215 213)
(216 215)
(217 216)
(218 217)
(219 218)
(220 221)
(222 223)
(224 225)
(226 224)
(227 226)
(228 227)
(229 228)
(230 229)
(231 232)
(13 233)
(233 234)
(234 235)
(235 236)
(247 248)
(249 77)
(250 249)
(251 250)
(261 262)
(262 263)
(263 264)
(264 265)
(265 266)
(266 267)
(267 268)
(268 269)
(269 270)
(270 271)
(271 272)
(272 273)
(274 275)
(276 274)
(277 276)
(278 277)
(279 278)
(280 279)
(281 280)
(282 281)
(283 282)
(284 283)
(285 284)
(286 285)
(287 261)
(288 287)
(289 288)
(290 289)
(291 290)
(292 291)
(293 292)
(294 293)
(295 294)
(296 295)
(297 296)
(273 297)
(275 298)
(298 299)
(299 300)
(300 301)
(301 302)
(302 303)
(303 304)
(304 305)
(305 306)
(306 307)
(307 308)
(308 286)
(221 219)
(95 231)
(232 220)
(309 16)
(310 309)
(311 310)
(236 311)
(223 230)
(112 321)
(321 322)
(322 222)
(331 332)
(333 331)
(334 333)
(335 334)
(336 335)
(337 336)
(338 337)
(339 338)
(340 339)
(341 340)
(342 341)
(343 342)
(344 345)
(345 346)
(346 347)
(347 348)
(348 349)
(349 350)
(350 351)
(351 352)
(352 353)
(353 354)
(354 355)
(355 356)
(332 357)
(357 358)
(358 359)
(359 360)
(360 361)
(361 362)
(362 363)
(363 364)
(364 365)
(365 366)
(366 367)
(367 343)
(368 344)
(369 368)
(370 369)
(371 370)
(372 371)
(373 372)
(374 373)
(375 374)
(376 375)
(377 376)
(378 377)
(356 378)
(379 380)
(212 128)
(381 211)
(248 251)
(214 382)
(382 383)
(383 384)
(384 385)
(385 386)
(386 247)
(225 387)
(387 388)
(388 389)
(389 390)
(390 391)
(391 379)
(380 381)
(392 393)
(393 394)
(394 395)
(395 396)
(397 392)
(398 397)
(399 398)
(400 399)
(401 402)
(403 8)
(404 403)
(405 404)
(402 405)
(406 407)
(407 408)
(408 409)
(409 410)
(410 411)
(411 401)
(412 406)
(413 412)
(414 413)
(415 414)
(416 415)
(417 416)
(418 417)
(9 419)
(420 421)
(421 418)
(422 423)
(424 422)
(425 424)
(396 425)
(423 426)
(426 427)
(427 428)
(428 400)
(429 430)
(10 431)
(431 432)
(432 433)
(433 429)
(434 435)
(436 434)
(437 436)
(438 437)
(439 438)
(430 439)
(435 440)
(440 441)
(441 442)
(442 443)
(443 444)
(444 445)
(445 446)
(447 11)
(448 449)
(446 448)
(450 451)
(451 452)
(453 454)
(455 453)
(419 420)
(456 457)
(458 456)
(459 460)
(460 461)
(449 447)
(462 463)
(464 465)
(466 462)
(465 467)
(468 466)
(467 469)
(470 471)
(471 472)
(472 468)
(469 473)
(474 8)
(475 474)
(476 475)
(473 0)
(0 476)
(477 478)
(478 479)
(479 480)
(481 470)
(482 481)
(480 482)
(483 484)
(484 485)
(485 486)
(486 487)
(487 488)
(489 490)
(488 489)
(490 491)
(491 492)
(493 494)
(495 493)
(496 495)
(497 496)
(498 499)
(452 498)
(499 500)
(500 501)
(502 503)
(503 504)
(504 450)
(505 506)
(507 505)
(508 507)
(509 508)
(510 509)
(511 512)
(512 510)
(513 511)
(514 513)
(13 515)
(515 516)
(516 517)
(517 518)
(519 520)
(521 519)
(522 521)
(523 522)
(9 524)
(524 525)
(525 526)
(526 1)
(1 523)
(527 528)
(529 527)
(530 529)
(531 530)
(532 531)
(533 534)
(534 532)
(535 533)
(492 535)
(536 537)
(537 538)
(538 539)
(539 497)
(540 541)
(541 455)
(542 540)
(501 542)
(543 544)
(545 543)
(454 545)
(546 547)
(547 548)
(548 549)
(549 550)
(550 551)
(552 553)
(551 552)
(553 554)
(554 514)
(463 555)
(556 464)
(555 557)
(558 556)
(557 559)
(560 558)
(561 562)
(563 561)
(559 563)
(564 560)
(10 565)
(565 566)
(566 567)
(567 2)
(2 564)
(568 477)
(569 568)
(570 569)
(562 571)
(571 572)
(572 570)
(573 483)
(574 573)
(575 574)
(576 575)
(577 576)
(578 579)
(579 577)
(580 578)
(581 580)
(494 582)
(582 583)
(583 584)
(584 585)
(586 587)
(587 458)
(588 586)
(589 588)
(590 502)
(591 590)
(457 591)
(506 592)
(592 593)
(593 594)
(594 595)
(595 596)
(597 598)
(596 597)
(598 599)
(599 600)
(601 16)
(602 601)
(603 602)
(518 603)
(520 604)
(604 605)
(605 606)
(606 607)
(608 11)
(609 608)
(610 609)
(607 3)
(3 610)
(528 611)
(611 612)
(612 613)
(613 614)
(614 615)
(616 617)
(615 616)
(617 618)
(618 581)
(619 536)
(620 619)
(621 620)
(585 621)
(622 623)
(461 622)
(623 624)
(624 589)
(544 625)
(625 626)
(626 459)
(627 546)
(628 627)
(629 628)
(630 629)
(631 630)
(632 633)
(633 631)
(634 632)
(600 634)
(14 635)
(635 1)
(15 636)
(636 637)
(637 2)
(12 638)
(638 639)
(639 0)
(17 640)
(640 3)
(641 642)
(643 641)
(644 645)
(646 644)
(647 648)
(642 647)
(649 650)
(650 651)
(648 652)
(652 653)
(654 649)
(645 654)
(651 655)
(655 643)
(653 656)
(656 646)
(88 89)
(89 13)
(123 122)
(16 123)
(139 140)
(140 143)
(143 145)
(145 147)
(147 149)
(151 152)
(149 151)
(152 155)
(155 157)
(159 160)
(163 159)
(165 163)
(167 165)
(169 167)
(171 172)
(172 169)
(175 171)
(157 175)
(177 139)
(179 177)
(181 179)
(183 181)
(185 183)
(187 188)
(188 185)
(191 187)
(193 191)
(160 195)
(195 197)
(197 199)
(199 201)
(201 203)
(205 206)
(203 205)
(206 209)
(209 193)
(237 238)
(238 239)
(239 240)
(240 241)
(241 242)
(243 244)
(242 243)
(244 245)
(245 246)
(252 253)
(254 252)
(255 254)
(256 255)
(257 256)
(258 259)
(259 257)
(260 258)
(246 260)
(312 237)
(313 312)
(314 313)
(315 314)
(316 315)
(317 318)
(318 316)
(319 317)
(320 319)
(253 323)
(323 324)
(324 325)
(325 326)
(326 327)
(328 329)
(327 328)
(329 330)
(330 320)
(657 658)
(659 660)
(661 662)
(663 664)
(665 666)
(4 667)
(668 4)
(669 668)
(8 669)
(667 670)
(670 665)
(666 671)
(672 5)
(5 673)
(673 9)
(674 672)
(671 674)
(675 676)
(677 6)